&HEAD CHID='propane_dx_1p25cm_L_20cm', TITLE='UMD Line Burner, propane' /

&MULT ID='m1', DX=0.425,DY=0.30,DZ=0.30, I_UPPER=1,J_UPPER=1,K_UPPER=4/ 20 meshes
&MESH IJK=34,24,24, XB=-0.425,0.0,-0.30,0,-0.0125,0.2875, MULT_ID='m1'/

&MULT ID='m2', DY=1.30,DZ=0.75, J_UPPER=1, K_UPPER=1 / 4 meshes
&MESH IJK=34,24,20, XB=-0.425,0.425,-1.00,-0.30,-0.0125,0.7375, MULT_ID='m2'/

&TIME T_BEGIN=-5., T_END=60. /

&DUMP DT_DEVC=1, DT_HRR=1 /

&MISC SIMULATION_MODE='LES'/

&RADI NUMBER_RADIATION_ANGLES=400, ANGLE_INCREMENT=20, PATH_LENGTH=0.2, TRI_MODEL=T, TRI_VERSION=3 /

&SPEC ID='NITROGEN' /

&REAC RADIATIVE_FRACTION=0.0
      FUEL='PROPANE', N_SIMPLE_CHEMISTRY_REACTIONS=2,
      AIT_EXCLUSION_ZONE=-0.3,0.3,-0.05,0.05,-.05,0.05
      CRITICAL_FLAME_TEMPERATURE = 1447, AUTO_IGNITION_TEMPERATURE=450.
      SOOT_YIELD=0.024, CO_YIELD=0.005 /

&SURF ID='BURNER', SPEC_ID(1)='PROPANE', MASS_FLUX(1)=0.04316, COLOR='RED', TMP_FRONT=500. / HRRPUA=2000 kJ/s/m2

&SURF ID='COFLOW', COLOR='BLUE',
      SPEC_ID(1)='AIR',      MASS_FLUX(1)=0.245, RAMP_MF(1)='O2 RAMP'
      SPEC_ID(2)='NITROGEN', MASS_FLUX(2)=0.257, RAMP_MF(2)='N2 RAMP' /

&RAMP ID='O2 RAMP', T= 0.0, F=1.00 /
&RAMP ID='O2 RAMP', T=60.0, F=1.00 /

! Use for linear X_O2 ramp
&RAMP ID='N2 RAMP', T=                 0, F=                0/
&RAMP ID='N2 RAMP', T= 1.000000000000000, F=0.008090592107394/
&RAMP ID='N2 RAMP', T= 2.000000000000000, F=0.016323548932809/
&RAMP ID='N2 RAMP', T= 3.000000000000000, F=0.024702661474628/
&RAMP ID='N2 RAMP', T= 4.000000000000000, F=0.033231856536214/
&RAMP ID='N2 RAMP', T= 5.000000000000000, F=0.041915202862037/
&RAMP ID='N2 RAMP', T= 6.000000000000000, F=0.050756917609544/
&RAMP ID='N2 RAMP', T= 7.000000000000000, F=0.059761373178392/
&RAMP ID='N2 RAMP', T= 8.000000000000000, F=0.068933104420280/
&RAMP ID='N2 RAMP', T= 9.000000000000000, F=0.078276816254358/
&RAMP ID='N2 RAMP', T=10.000000000000000, F=0.087797391715087/
&RAMP ID='N2 RAMP', T=11.000000000000000, F=0.097499900461465/
&RAMP ID='N2 RAMP', T=12.000000000000000, F=0.107389607778788/
&RAMP ID='N2 RAMP', T=13.000000000000000, F=0.117471984106510/
&RAMP ID='N2 RAMP', T=14.000000000000000, F=0.127752715128455/
&RAMP ID='N2 RAMP', T=15.000000000000000, F=0.138237712464452/
&RAMP ID='N2 RAMP', T=16.000000000000000, F=0.148933125005678/
&RAMP ID='N2 RAMP', T=17.000000000000000, F=0.159845350939340/
&RAMP ID='N2 RAMP', T=18.000000000000000, F=0.170981050512134/
&RAMP ID='N2 RAMP', T=19.000000000000000, F=0.182347159585973/
&RAMP ID='N2 RAMP', T=20.000000000000000, F=0.193950904043954/
&RAMP ID='N2 RAMP', T=21.000000000000000, F=0.205799815109446/
&RAMP ID='N2 RAMP', T=22.000000000000000, F=0.217901745646541/
&RAMP ID='N2 RAMP', T=23.000000000000000, F=0.230264887516003/
&RAMP ID='N2 RAMP', T=24.000000000000000, F=0.242897790067327/
&RAMP ID='N2 RAMP', T=25.000000000000000, F=0.255809379854623/
&RAMP ID='N2 RAMP', T=26.000000000000000, F=0.269008981671880/
&RAMP ID='N2 RAMP', T=27.000000000000000, F=0.282506341011772/
&RAMP ID='N2 RAMP', T=28.000000000000000, F=0.296311648061682/
&RAMP ID='N2 RAMP', T=29.000000000000000, F=0.310435563361119/
&RAMP ID='N2 RAMP', T=30.000000000000000, F=0.324889245256292/
&RAMP ID='N2 RAMP', T=31.000000000000000, F=0.339684379300432/
&RAMP ID='N2 RAMP', T=32.000000000000000, F=0.354833209762668/
&RAMP ID='N2 RAMP', T=33.000000000000000, F=0.370348573424029/
&RAMP ID='N2 RAMP', T=34.000000000000000, F=0.386243935856606/
&RAMP ID='N2 RAMP', T=35.000000000000000, F=0.402533430401395/
&RAMP ID='N2 RAMP', T=36.000000000000000, F=0.419231900081946/
&RAMP ID='N2 RAMP', T=37.000000000000000, F=0.436354942715088/
&RAMP ID='N2 RAMP', T=38.000000000000000, F=0.453918959506893/
&RAMP ID='N2 RAMP', T=39.000000000000000, F=0.471941207452141/
&RAMP ID='N2 RAMP', T=40.000000000000000, F=0.490439855889153/
&RAMP ID='N2 RAMP', T=41.000000000000000, F=0.509434047599629/
&RAMP ID='N2 RAMP', T=42.000000000000000, F=0.528943964885375/
&RAMP ID='N2 RAMP', T=43.000000000000000, F=0.548990901101409/
&RAMP ID='N2 RAMP', T=44.000000000000000, F=0.569597338178432/
&RAMP ID='N2 RAMP', T=45.000000000000000, F=0.590787030728015/
&RAMP ID='N2 RAMP', T=46.000000000000000, F=0.612585097391975/
&RAMP ID='N2 RAMP', T=47.000000000000000, F=0.635018120174504/
&RAMP ID='N2 RAMP', T=48.000000000000000, F=0.658114252582934/
&RAMP ID='N2 RAMP', T=49.000000000000000, F=0.681903337502129/
&RAMP ID='N2 RAMP', T=50.000000000000000, F=0.706417035840210/
&RAMP ID='N2 RAMP', T=51.000000000000000, F=0.731688967111700/
&RAMP ID='N2 RAMP', T=52.000000000000000, F=0.757754863270713/
&RAMP ID='N2 RAMP', T=53.000000000000000, F=0.784652737274398/
&RAMP ID='N2 RAMP', T=54.000000000000000, F=0.812423068048917/
&RAMP ID='N2 RAMP', T=55.000000000000000, F=0.841109003750734/
&RAMP ID='N2 RAMP', T=56.000000000000000, F=0.870756585469859/
&RAMP ID='N2 RAMP', T=57.000000000000000, F=0.901414993814396/
&RAMP ID='N2 RAMP', T=58.000000000000000, F=0.933136821154225/
&RAMP ID='N2 RAMP', T=59.000000000000000, F=0.965978372693841/
&RAMP ID='N2 RAMP', T=60.000000000000000, F=1.000000000000000/

&OBST XB=-0.25,0.25,-0.025,0.025,-0.0125,0.0, SURF_IDS='BURNER','INERT','INERT' /

&OBST XB=-0.425,0.425,-0.30,-0.25,-0.0125,0.0 /
&OBST XB=-0.425,0.425, 0.25, 0.30,-0.0125,0.0 /

&OBST XB=-0.425,-0.375,-0.25,0.25,-0.0125,0.0 /
&OBST XB= 0.375, 0.425,-0.25,0.25,-0.0125,0.0 /

&MATL ID='KAOWOOL', CONDUCTIVITY=0.07, DENSITY=220, SPECIFIC_HEAT=1.1 /
&SURF ID='CERAMIC BOARD', COLOR='IVORY', MATL_ID='KAOWOOL', THICKNESS=0.05 /
&VENT SURF_ID='CERAMIC BOARD' XB=-0.30,0.30,-0.075,0.075,-0.0124,-0.0124/
&VENT SURF_ID='COFLOW', XB=-0.375,0.375,-0.25,0.25,-0.0125,-0.0125/

&SURF ID='HEAT FLUX WALL', COLOR='INVISIBLE'/
&VENT DB='XMAX',SURF_ID='OPEN'/
&VENT DB='XMIN',SURF_ID='OPEN'/
&VENT DB='YMAX',SURF_ID='HEAT FLUX WALL'/
&VENT DB='YMIN',SURF_ID='HEAT FLUX WALL'/
&VENT DB='ZMAX',SURF_ID='OPEN'/
&VENT DB='ZMIN',SURF_ID='OPEN'/

&SLCF PBY=0.001, QUANTITY = 'VELOCITY', VECTOR=.TRUE./
&SLCF PBY=0.001, QUANTITY = 'TEMPERATURE', CELL_CENTERED=.TRUE./
&SLCF PBY=0.001, QUANTITY = 'HRRPUV', CELL_CENTERED=.TRUE./
&SLCF PBY=0.001, QUANTITY = 'MASS FRACTION', SPEC_ID='SOOT', CELL_CENTERED=.TRUE./
&SLCF PBY=0.001, QUANTITY = 'TRI CORRECTION', CELL_CENTERED=.TRUE./
&SLCF PBY=0.001, QUANTITY = 'FLAME TEMPERATURE', CELL_CENTERED=.TRUE./
&SLCF PBY=0.001, QUANTITY = 'RADIATION LOSS', CELL_CENTERED=.TRUE./
&SLCF PBY=0.001, QUANTITY = 'ABSORPTION COEFFICIENT', CELL_CENTERED=.TRUE./
&SLCF PBY=0.001, QUANTITY = 'FLAME VOLUME FRACTION', CELL_CENTERED=.TRUE./
&SLCF PBY=0.001, QUANTITY = 'EXTINCTION', CELL_CENTERED=.TRUE./

&SLCF PBX=0.001, QUANTITY = 'VELOCITY', VECTOR=.TRUE./
&SLCF PBX=0.001, QUANTITY = 'TEMPERATURE', CELL_CENTERED=.TRUE./
&SLCF PBX=0.001, QUANTITY = 'HRRPUV', CELL_CENTERED=.TRUE./
&SLCF PBX=0.001, QUANTITY = 'MASS FRACTION', SPEC_ID='SOOT', CELL_CENTERED=.TRUE./
&SLCF PBX=0.001, QUANTITY = 'TRI CORRECTION', CELL_CENTERED=.TRUE./
&SLCF PBX=0.001, QUANTITY = 'FLAME TEMPERATURE', CELL_CENTERED=.TRUE./
&SLCF PBX=0.001, QUANTITY = 'RADIATION LOSS', CELL_CENTERED=.TRUE./
&SLCF PBX=0.001, QUANTITY = 'ABSORPTION COEFFICIENT', CELL_CENTERED=.TRUE./
&SLCF PBX=0.001, QUANTITY = 'FLAME VOLUME FRACTION', CELL_CENTERED=.TRUE./
&SLCF PBX=0.001, QUANTITY = 'EXTINCTION', CELL_CENTERED=.TRUE./

&DEVC ID = 'XO2',   XYZ = 0,0.15,-0.0124, QUANTITY='VOLUME FRACTION', SPEC_ID='OXYGEN', TIME_AVERAGED=F/
&DEVC ID = 'qrad1', XB = -0.20,0.20, 1.0, 1.0,0.05,0.30, QUANTITY='GAUGE HEAT FLUX', IOR=-2, SPATIAL_STATISTIC='MEAN' /
&DEVC ID = 'qrad2', XB = -0.10,0.10,-1.0,-1.0,0.08,0.28, QUANTITY='GAUGE HEAT FLUX', IOR= 2, SPATIAL_STATISTIC='MEAN' /
&DEVC ID = 'Lf', XB=0,0,0,0,0,0.987, POINTS=50, QUANTITY='HRRPUL', TIME_HISTORY=T/

&TAIL/
