&HEAD CHID='Qs=10000_RI=10', TITLE='Flame Height Test, Q*=10000' /

&MESH IJK=33,33,80, XB=-72.0,72.0,-72.0,72.0,-18.0,342. /
&TIME T_END=336. /

&MISC HUMIDITY=0, Y_CO2_INFTY=0/
&REAC FUEL='PROPANE',
      SOOT_YIELD=0.015, RADIATIVE_FRACTION=0 /


&RADI TRI_MODEL=T/

&SURF ID='burner', HRRPUA=15127250., COLOR='RED' /
&OBST XB=-0.5,0.5,-0.5,0.5,-5.0,0.0, SURF_IDS='burner','INERT','INERT', THICKEN=.TRUE. /

&VENT MB='XMIN', SURF_ID='OPEN' /
&VENT MB='XMAX', SURF_ID='OPEN' /
&VENT MB='YMIN', SURF_ID='OPEN' /
&VENT MB='YMAX', SURF_ID='OPEN' /
&VENT MB='ZMIN', SURF_ID='OPEN' /
&VENT MB='ZMAX', SURF_ID='OPEN' /
&DUMP DT_HRR=5., NFRAMES=100, SIG_FIGS=4, SIG_FIGS_EXP=2 /

&DEVC XB=0.0,0.0,0.0,0.0,2.25,339.75, QUANTITY='HRRPUL', POINTS=76, Z_ID='Height', ID='HRRPUL' /

&SLCF PBY=0, QUANTITY='RADIATION LOSS', CELL_CENTERED=T /
&SLCF PBY=0, QUANTITY='HRRPUV', CELL_CENTERED=T /
&SLCF PBY=0, QUANTITY='TRI CORRECTION', CELL_CENTERED=T /
&SLCF PBY=0, QUANTITY='TEMPERATURE', CELL_CENTERED=T /

&TAIL /

