&HEAD CHID='CH4_cup_CO2'/

&MESH IJK=20,1,20,XB= 0.010,0.020,0.0000,0.0005,0.000,0.010,CYLINDRICAL=T,MULT_ID='M'/
&MULT ID='M',DX=0.01,I_UPPER=2/
&MESH IJK=20,1,20,XB= 0.000,0.010,0.0000,0.0005,0.010,0.020,CYLINDRICAL=T,MULT_ID='M2'/
&MULT ID='M2',DX=0.01,DZ=0.01,I_UPPER=3,K_UPPER=6/

&TIME T_END=2.0/

&VENT PBZ=0.080,SURF_ID='OPEN'/
&VENT PBZ=0.000,SURF_ID='INFLOW'/
&VENT PBX=0.040,SURF_ID='CUP'/

&MISC SIMULATION_MODE='DNS'/
&PRES SOLVER='UGLMAT', MAX_PRESSURE_ITERATIONS=1/

&SURF ID='FUEL',SPEC_ID='METHANE',MASS_FRACTION=1.0,TAU_MF=0.0,TAU_V=0.01,VEL=-0.015,RGB=100,20,20/
! &SURF ID='AIR',TAU_V=0.05,VEL=-0.12,RGB=20,20,100/
&SURF ID='INFLOW',
      MASS_FLUX(1)=0.0331, SPEC_ID(1)='OXYGEN',
      MASS_FLUX(2)=0.1109, SPEC_ID(2)='NITROGEN',
      MASS_FLUX(3)=0.0063, SPEC_ID(3)='CARBON DIOXIDE'
      TAU_MF(1:3)=0,0,0
      RGB=20,20,100 /

&MATL ID='PYREX',
      SPECIFIC_HEAT=0.753,
      CONDUCTIVITY=1.,
      DENSITY=2230.
      ABSORPTION_COEFFICIENT=50/

&SURF ID='CUP',COLOR='GRAY 50',MATL_ID='PYREX',THICKNESS=0.002/
&SURF ID='CUP T',COLOR='GRAY 50',MATL_ID='PYREX',THICKNESS=0.02/

&INIT XB=0.006,0.009,0.0000,0.0005,0.010,0.014,HRRPUV=1E5,RAMP_Q='R'/

&RAMP ID='R',T=0.00,F=0/
&RAMP ID='R',T=0.05,F=1/
&RAMP ID='R',T=0.25,F=1/
&RAMP ID='R',T=0.30,F=0/

&OBST XB=0.000,0.009,0.0000,0.0005,0.000,0.010, SURF_IDS='FUEL','CUP','CUP T'/
&OBST XB=0.009,0.010,0.0000,0.0005,0.000,0.012, SURF_IDS='CUP T','CUP','CUP T'/

&COMB FINITE_RATE_MIN_TEMP=300,ZZ_MIN_GLOBAL=1E-15,INITIAL_UNMIXED_FRACTION=0,ODE_SOLVER='RK2 RICHARDSON',RICHARDSON_ERROR_TOLERANCE=1.E-6,MAX_CHEMISTRY_SUBSTEPS=200/

&CATF OTHER_FILES='../Mech/CH4_skeletal_smooke.fds'/

&DEVC XB=0.00475,0.01175,0.00025,0.00025,0.01525,0.01525,POINTS=15,TIME_HISTORY=T,QUANTITY='VOLUME FRACTION',SPEC_ID='NITROGEN',ID='N2'/
&DEVC XB=0.00475,0.01175,0.00025,0.00025,0.01525,0.01525,POINTS=15,TIME_HISTORY=T,QUANTITY='VOLUME FRACTION',SPEC_ID='OXYGEN',ID='O2'/
&DEVC XB=0.00475,0.01175,0.00025,0.00025,0.01525,0.01525,POINTS=15,TIME_HISTORY=T,QUANTITY='VOLUME FRACTION',SPEC_ID='METHANE',ID='CH4'/
&DEVC XB=0.00475,0.01175,0.00025,0.00025,0.01525,0.01525,POINTS=15,TIME_HISTORY=T,QUANTITY='VOLUME FRACTION',SPEC_ID='WATER VAPOR',ID='H2O'/
&DEVC XB=0.00475,0.01175,0.00025,0.00025,0.01525,0.01525,POINTS=15,TIME_HISTORY=T,QUANTITY='VOLUME FRACTION',SPEC_ID='CARBON DIOXIDE',ID='CO2'/
&DEVC XB=0.00475,0.01175,0.00025,0.00025,0.01525,0.01525,POINTS=15,TIME_HISTORY=T,QUANTITY='VOLUME FRACTION',SPEC_ID='CARBON MONOXIDE',ID='CO'/
&DEVC XB=0.00475,0.01175,0.00025,0.00025,0.01525,0.01525,POINTS=15,TIME_HISTORY=T,QUANTITY='VOLUME FRACTION',SPEC_ID='HYDROGEN',ID='H2'/
&DEVC XB=0.00475,0.01175,0.00025,0.00025,0.01525,0.01525,POINTS=15,TIME_HISTORY=T,QUANTITY='VOLUME FRACTION',SPEC_ID='HYDROGEN ATOM',ID='H'/
&DEVC XB=0.00475,0.01175,0.00025,0.00025,0.01525,0.01525,POINTS=15,TIME_HISTORY=T,QUANTITY='VOLUME FRACTION',SPEC_ID='OXYGEN ATOM',ID='O'/
&DEVC XB=0.00475,0.01175,0.00025,0.00025,0.01525,0.01525,POINTS=15,TIME_HISTORY=T,QUANTITY='VOLUME FRACTION',SPEC_ID='HYDROXYL RADICAL',ID='OH'/
&DEVC XB=0.00475,0.01175,0.00025,0.00025,0.01525,0.01525,POINTS=15,TIME_HISTORY=T,QUANTITY='VOLUME FRACTION',SPEC_ID='HYDROPEROXY RADICAL',ID='HO2'/
&DEVC XB=0.00475,0.01175,0.00025,0.00025,0.01525,0.01525,POINTS=15,TIME_HISTORY=T,QUANTITY='VOLUME FRACTION',SPEC_ID='HYDROGEN PEROXIDE',ID='H2O2'/
&DEVC XB=0.00475,0.01175,0.00025,0.00025,0.01525,0.01525,POINTS=15,TIME_HISTORY=T,QUANTITY='VOLUME FRACTION',SPEC_ID='FORMYL RADICAL',ID='HCO'/
&DEVC XB=0.00475,0.01175,0.00025,0.00025,0.01525,0.01525,POINTS=15,TIME_HISTORY=T,QUANTITY='VOLUME FRACTION',SPEC_ID='FORMALDEHYDE',ID='CH2O'/
&DEVC XB=0.00475,0.01175,0.00025,0.00025,0.01525,0.01525,POINTS=15,TIME_HISTORY=T,QUANTITY='VOLUME FRACTION',SPEC_ID='METHOXY RADICAL',ID='CH3O'/
&DEVC XB=0.00475,0.01175,0.00025,0.00025,0.01525,0.01525,POINTS=15,TIME_HISTORY=T,QUANTITY='VOLUME FRACTION',SPEC_ID='METHYL RADICAL',ID='CH3'/
! &DEVC XB=0.00475,0.01175,0.00025,0.00025,0.01525,0.01525,POINTS=15,TIME_HISTORY=T,QUANTITY='VOLUME FRACTION',SPEC_ID='SODIUM',ID='Na'/
! &DEVC XB=0.00475,0.01175,0.00025,0.00025,0.01525,0.01525,POINTS=15,TIME_HISTORY=T,QUANTITY='VOLUME FRACTION',SPEC_ID='SODIUM HYDROXIDE',ID='NaOH'/
! &DEVC XB=0.00475,0.01175,0.00025,0.00025,0.01525,0.01525,POINTS=15,TIME_HISTORY=T,QUANTITY='VOLUME FRACTION',SPEC_ID='SODIUM OXIDE',ID='NaO'/
&DEVC XB=0.00475,0.01175,0.00025,0.00025,0.01525,0.01525,POINTS=15,TIME_HISTORY=T,QUANTITY='CHEMISTRY SUBITERATIONS',ID='CHEM'/
&DEVC XB=0.00475,0.01175,0.00025,0.00025,0.01525,0.01525,POINTS=15,TIME_HISTORY=T,QUANTITY='W-VELOCITY',ID='W'/
&DEVC XB=0.00475,0.01175,0.00025,0.00025,0.01525,0.01525,POINTS=15,TIME_HISTORY=T,QUANTITY='TEMPERATURE',ID='T'/
&DEVC XB=0.00475,0.01175,0.00025,0.00025,0.01525,0.01525,POINTS=15,TIME_HISTORY=T,QUANTITY='HRRPUV',ID='Q'/
&DEVC XB=0.00475,0.01175,0.00025,0.00025,0.01525,0.01525,POINTS=15,TIME_HISTORY=T,QUANTITY='PRESSURE',ID='P'/

&SLCF QUANTITY='TEMPERATURE',CELL_CENTERED=T,PBY=0.0005/
&SLCF QUANTITY='HRRPUV',CELL_CENTERED=T,PBY=0.0005/
&SLCF QUANTITY='U-VELOCITY',CELL_CENTERED=T,PBY=0.0005/
&SLCF QUANTITY='W-VELOCITY',CELL_CENTERED=T,PBY=0.0005/
&SLCF QUANTITY='CHEMISTRY SUBITERATIONS',CELL_CENTERED=T,PBY=0.0005/
&SLCF QUANTITY='VOLUME FRACTION',SPEC_ID='METHANE',CELL_CENTERED=T,PBY=0.0005/
&SLCF QUANTITY='VOLUME FRACTION',SPEC_ID='OXYGEN',CELL_CENTERED=T,PBY=0.0005/
&SLCF QUANTITY='VOLUME FRACTION',SPEC_ID='WATER VAPOR',CELL_CENTERED=T,PBY=0.0005/
&SLCF QUANTITY='VOLUME FRACTION',SPEC_ID='CARBON DIOXIDE',CELL_CENTERED=T,PBY=0.0005/
&SLCF QUANTITY='VOLUME FRACTION',SPEC_ID='CARBON MONOXIDE',CELL_CENTERED=T,PBY=0.0005/
&SLCF QUANTITY='VOLUME FRACTION',SPEC_ID='HYDROGEN',CELL_CENTERED=T,PBY=0.0005/
&SLCF QUANTITY='VOLUME FRACTION',SPEC_ID='HYDROGEN ATOM',CELL_CENTERED=T,PBY=0.0005/
&SLCF QUANTITY='VOLUME FRACTION',SPEC_ID='OXYGEN ATOM',CELL_CENTERED=T,PBY=0.0005/
&SLCF QUANTITY='VOLUME FRACTION',SPEC_ID='HYDROXYL RADICAL',CELL_CENTERED=T,PBY=0.0005/
&SLCF QUANTITY='VOLUME FRACTION',SPEC_ID='HYDROPEROXY RADICAL',CELL_CENTERED=T,PBY=0.0005/
&SLCF QUANTITY='VOLUME FRACTION',SPEC_ID='METHYL RADICAL',CELL_CENTERED=T,PBY=0.0005/
! &SLCF QUANTITY='VOLUME FRACTION',SPEC_ID='SODIUM',CELL_CENTERED=T,PBY=0.0005/
! &SLCF QUANTITY='VOLUME FRACTION',SPEC_ID='SODIUM HYDROXIDE',CELL_CENTERED=T,PBY=0.0005/
! &SLCF QUANTITY='VOLUME FRACTION',SPEC_ID='SODIUM OXIDE',CELL_CENTERED=T,PBY=0.0005/

&TAIL/
