"""

 Updated 3 reactions per O.A. Powell, P. Papas & C.B. Dreyer, PCI Vol. 33, (2011) 1053-1062.
 (1) NH2+NO=NNH+OH, (2) NH2+NO=N2+H2O, (3) NH3+NH2=N2H3+H2

 Optimized C3 mechanism (with H2/O2 chemistry from Li et al.) from reference:
 O.A. Powell, P. Papas & C.B. Dreyer, "Hydrogen- and C1-C3 Hydrocarbon-Nitrous Oxide Kinetics in
 Freely Propagating and Burner Stabilized Flames, Shock Tubes, and Flow Reactors,"
 CST 182, (2010), pp. 252-283.

    From Powell et al. CST vol 182, 2010
    set up for at or near atmospheric pressure with N2 as the bath gas
    hydrocarbon reactions from Qin et al 2000

 Reference:

 Z. Qin, V. V. Lissianski, H. Yang, W. C. Gardiner, Jr., S. G. Davis
 and H. Wang, Combustion Chemistry Of Propane: A Case Study of Detailed
 Reaction Mechanism Optimization,  Proceedings of the Combustion Institute,
 Volume 28, 2000.  p. 16631669.

  (10) "Kinetic Modeling of the CO/H2O/O2/NO/SO2 System: Implications
       High-Pressure Fall-off in the SO2 + O(+M) = SO3(+M) Reaction,"
       Mueller, M. A., Yetter, R. A., and Dryer, R. L., Int. J. of Chem.
       Kinetics, Vol. 32, pp. 317-339, (2000).

  (11) KONNOV, A.A. Detailed reaction mechanism for small hydrocarbons
       combustion. Release 0.5 http://homepages.vub.ac.be/~akonnov/, 2000.

     Took some additional reactions from Glassman and Yetter 'Combustion', 2008

       All nitrogen reactions and thermo data came 3H2from Ref. 10
          (checked N2 data and it's virtually identical)
       All nitrogen transport data (except N2) came from Ref. 11

  LEFT N chemistry (Oct 2022)
  ADDED NA chemistry (Oct 2022)

"""

units(length='cm', time='s', quantity='mol', act_energy='cal/mol')

ideal_gas(name='gas',
          elements="C H O N Ar Na",
          species="""NAHCO3   NA       NAOH     (NAOH)2  NAO      NAO2
                     NAH      NA2O2    NA2O     NO       NO2      HNO
                     HONO     N2O      NO3      HNO3     NH       NH2
                     NH3      NNH      N2H2     N2H3     N2H4     H2
                     H        O        O2       OH       H2O      HO2
                     H2O2     C        CH       CH2      CH2*     CH3
                     CH4      CO       CO2      HCO      CH2O     CH2OH
                     CH3O     CH3OH    C2H      C2H2     C2H3     C2H4
                     C2H5     C2H6     HCCO     CH2CO    HCCOH    N
                     AR       N2       CH2CHO   C3H2     C3H3     pC3H4
                     aC3H4    cC3H4    C4H2     H2C4O    n-C4H3   i-C4H3
                     C4H4     n-C4H5   i-C4H5   C4H6     C4H612   C4H81
                     C4H7     C6H2     C6H3     l-C6H4   c-C6H4   A1
                     A1-      C6H5O    C6H5OH   C5H6     C5H5     C5H5O
                     C5H4OH   C5H4O    C3H8     nC3H7    iC3H7    C3H6
                     aC3H5    CH3CCH2  CH3CHO   C2H3CHO""",
          reactions='all',
          transport='Mix',
          initial_state=state(temperature=300.0, pressure=OneAtm))

#-------------------------------------------------------------------------------
# Species data
#-------------------------------------------------------------------------------

species(name='NAHCO3',
        atoms='C:1 H:1 Na:1 O:3',
        thermo=(NASA([300.00, 1200.00],
                     [ 1.83188080E+01, -7.99211950E-02,  2.53742450E-04,
                      -2.66984930E-07,  9.02750140E-11, -1.16397480E+05,
                      -7.74427060E+01]),
                NASA([1200.00, 3000.00],
                     [ 1.48949970E+01, -2.02647730E-03,  1.08163770E-06,
                      -2.38745770E-10,  1.86074610E-14, -1.16204330E+05,
                      -7.15823850E+01])),
        transport=gas_transport(geom='nonlinear',
                                diam=4.53,
                                well_depth=1257.0,
                                rot_relax=1.0),
        note='fitS=G')

species(name='NA',
        atoms='Na:1',
        thermo=(NASA([300.00, 1000.00],
                     [ 2.52888580E+00, -2.11838720E-04,  5.50918240E-07,
                      -5.98840960E-10,  2.30559730E-13,  1.21313220E+04,
                       4.11517510E+00]),
                NASA([1000.00, 4000.00],
                     [ 2.41323390E+00,  1.88933180E-04, -1.35969770E-07,
                       3.52267000E-11, -1.73998820E-15,  1.21634940E+04,
                       4.70346080E+00])),
        transport=gas_transport(geom='atom',
                                diam=3.77,
                                well_depth=835.0,
                                rot_relax=1.0),
        note='0')

species(name='NAOH',
        atoms='H:1 Na:1 O:1',
        thermo=(NASA([300.00, 1000.00],
                     [ 3.72369230E+00,  1.19840310E-02, -2.12816100E-05,
                       1.73428170E-08, -5.19672640E-12, -2.38164450E+04,
                       3.49938010E+00]),
                NASA([1000.00, 3000.00],
                     [ 5.65856610E+00,  1.20229680E-03, -3.27993600E-07,
                       4.12930590E-11, -1.95748480E-15, -2.40585630E+04,
                      -5.09284610E+00])),
        transport=gas_transport(geom='nonlinear',
                                diam=4.21,
                                well_depth=1114.0,
                                rot_relax=1.0),
        note='GUR0')

species(name='(NAOH)2',
        atoms='H:2 Na:2 O:2',
        thermo=(NASA([300.00, 1000.00],
                     [ 5.34189220E+00,  1.86522610E-02, -1.80693670E-05,
                       9.33724910E-09, -1.98434450E-12, -7.53642520E+04,
                       1.69977050E+00]),
                NASA([1000.00, 4000.00],
                     [ 8.98718000E+00,  6.42440530E-03, -2.60401360E-06,
                       5.08956580E-10, -3.88381030E-14, -7.62327580E+04,
                      -1.65294190E+01])),
        transport=gas_transport(geom='nonlinear',
                                diam=4.84,
                                well_depth=1279.0,
                                rot_relax=1.0),
        note='0')

species(name='NAO',
        atoms='Na:1 O:1',
        thermo=(NASA([300.00, 1000.00],
                     [ 3.35814150E+00,  4.42245450E-03, -6.62217250E-06,
                       5.54043390E-09, -1.91737870E-12,  1.16615680E+04,
                       7.28305060E+00]),
                NASA([1000.00, 3000.00],
                     [ 4.62282880E+00,  2.21323760E-04, -1.02775120E-07,
                       4.62822010E-11, -6.18092630E-15,  1.13156120E+04,
                       8.41916720E-01])),
        transport=gas_transport(geom='linear',
                                diam=3.812,
                                well_depth=383.0,
                                rot_relax=1.0),
        note='GUR')

species(name='NAO2',
        atoms='Na:1 O:2',
        thermo=(NASA([300.00, 1000.00],
                     [ 3.97046620E+00,  9.35388230E-03, -1.38547600E-05,
                       1.12264170E-08, -3.62094990E-12, -7.29077470E+03,
                       5.50820840E+00]),
                NASA([1000.00, 4000.00],
                     [ 5.12611130E+00,  3.40962120E-03, -1.84760540E-06,
                       4.22311000E-10, -3.53824470E-14, -7.49276110E+03,
                       1.70955420E-01])),
        transport=gas_transport(geom='nonlinear',
                                diam=4.32,
                                well_depth=1205.0,
                                rot_relax=1.0),
        note='0')

species(name='NAH',
        atoms='H:1 Na:1',
        thermo=(NASA([300.00, 1000.00],
                     [ 3.01100480E+00,  2.30592490E-03, -3.78211730E-07,
                      -9.25874950E-10,  4.15373350E-13,  1.59454100E+04,
                       4.83020690E+00]),
                NASA([1000.00, 3000.00],
                     [ 4.04554540E+00,  2.35709580E-04,  2.55725890E-07,
                      -1.21266560E-10,  1.25020870E-14,  1.56140870E+04,
                      -7.30384830E-01])),
        transport=gas_transport(geom='linear',
                                diam=3.542,
                                well_depth=93.3,
                                rot_relax=1.0),
        note='GUR')

species(name='NA2O2',
        atoms='Na:2 O:2',
        thermo=(NASA([300.00, 1000.00],
                     [ 8.63315770E+00,  2.64824950E-03, -1.48095660E-06,
                      -6.75346360E-10,  7.25917730E-13, -1.75816620E+04,
                      -1.50785300E+01]),
                NASA([1000.00, 4000.00],
                     [ 8.31217430E+00,  2.88317670E-03, -1.75609850E-06,
                       4.54089700E-10, -4.23201420E-14, -1.74151390E+04,
                      -1.31430300E+01])),
        transport=gas_transport(geom='nonlinear',
                                diam=4.53,
                                well_depth=1208.0,
                                rot_relax=1.0),
        note='0')

species(name='NA2O',
        atoms='Na:2 O:1',
        thermo=(NASA([300.00, 1000.00],
                     [ 7.46944630E+00, -5.98061820E-03,  1.78492760E-05,
                      -1.80354130E-08,  6.12388560E-12, -4.06014240E+03,
                      -8.79571610E+00]),
                NASA([1000.00, 4000.00],
                     [ 7.21879330E+00,  3.38287000E-04, -1.63420940E-07,
                       3.58767010E-11, -2.95975960E-15, -4.25716310E+03,
                      -8.86887530E+00])),
        transport=gas_transport(geom='nonlinear',
                                diam=4.28,
                                well_depth=1139.0,
                                rot_relax=1.0),
        note='0')

species(name='NO',
        atoms='N:1 O:1',
        thermo=(NASA([300.00, 1000.00],
                     [ 3.37654200E+00,  1.25306300E-03, -3.30275100E-06,
                       5.21781000E-09, -2.44626300E-12,  9.81796100E+03,
                       5.82959000E+00]),
                NASA([1000.00, 5000.00],
                     [ 3.24543500E+00,  1.26913800E-03, -5.01589000E-07,
                       9.16928300E-11, -6.27541900E-15,  9.80084000E+03,
                       6.41729400E+00])),
        transport=gas_transport(geom='linear',
                                diam=3.621,
                                well_depth=97.53,
                                polar=1.76,
                                rot_relax=4.0),
        note='121286')

species(name='NO2',
        atoms='N:1 O:2',
        thermo=(NASA([300.00, 1000.00],
                     [ 2.67060000E+00,  7.83850100E-03, -8.06386500E-06,
                       6.16171500E-09, -2.32015000E-12,  2.89629100E+03,
                       1.16120700E+01]),
                NASA([1000.00, 5000.00],
                     [ 4.68285900E+00,  2.46242900E-03, -1.04225900E-06,
                       1.97690200E-10, -1.39171700E-14,  2.26129200E+03,
                       9.88598500E-01])),
        transport=gas_transport(geom='nonlinear',
                                diam=3.5,
                                well_depth=200.0,
                                rot_relax=1.0),
        note='121286')

species(name='HNO',
        atoms='H:1 N:1 O:1',
        thermo=(NASA([300.00, 1000.00],
                     [ 2.78440300E+00,  6.60964600E-03, -9.30022300E-06,
                       9.43798000E-09, -3.75314600E-12,  1.09187800E+04,
                       9.03562900E+00]),
                NASA([1000.00, 5000.00],
                     [ 3.61514400E+00,  3.21248600E-03, -1.26033700E-06,
                       2.26729800E-10, -1.53623600E-14,  1.06619100E+04,
                       4.81026400E+00])),
        transport=gas_transport(geom='nonlinear',
                                diam=3.492,
                                well_depth=116.7,
                                rot_relax=1.0),
        note='121286')

species(name='HONO',
        atoms='H:1 N:1 O:2',
        thermo=(NASA([300.00, 1000.00],
                     [ 2.29041300E+00,  1.40992200E-02, -1.36787200E-05,
                       7.49878000E-09, -1.87690500E-12, -1.04319500E+04,
                       1.32807700E+01]),
                NASA([1000.00, 5000.00],
                     [ 5.48689300E+00,  4.21806500E-03, -1.64914300E-06,
                       2.97187700E-10, -2.02114800E-14, -1.12686500E+04,
                      -2.99700200E+00])),
        transport=gas_transport(geom='nonlinear',
                                diam=3.828,
                                well_depth=232.4,
                                rot_relax=1.0),
        note='31787')

species(name='N2O',
        atoms='N:2 O:1',
        thermo=(NASA([300.00, 1000.00],
                     [ 2.54305800E+00,  9.49219300E-03, -9.79277500E-06,
                       6.26384500E-09, -1.90182600E-12,  8.76510000E+03,
                       9.51122200E+00]),
                NASA([1000.00, 5000.00],
                     [ 4.71897700E+00,  2.87371400E-03, -1.19749600E-06,
                       2.25055200E-10, -1.57533700E-14,  8.16581100E+03,
                      -1.65725000E+00])),
        transport=gas_transport(geom='linear',
                                diam=3.828,
                                well_depth=232.4,
                                rot_relax=1.0),
        note='121286')

species(name='NO3',
        atoms='N:1 O:3',
        thermo=(NASA([300.00, 1000.00],
                     [ 1.22107600E+00,  1.87879700E-02, -1.34432100E-05,
                       1.27460100E-09,  1.35406000E-12,  7.47314400E+03,
                       1.84020300E+01]),
                NASA([1000.00, 5000.00],
                     [ 7.12030700E+00,  3.24622800E-03, -1.43161300E-06,
                       2.79705300E-10, -2.01300800E-14,  5.86447900E+03,
                      -1.21373000E+01])),
        transport=gas_transport(geom='nonlinear',
                                diam=4.175,
                                well_depth=378.4,
                                rot_relax=1.0),
        note='121286')

species(name='HNO3',
        atoms='H:1 N:1 O:3',
        thermo=(NASA([300.00, 1000.00],
                     [ 1.35318500E+00,  2.22002500E-02, -1.97881200E-05,
                       8.77390800E-09, -1.65838400E-12, -1.73856300E+04,
                       1.85186800E+01]),
                NASA([1000.00, 5000.00],
                     [ 7.00384500E+00,  5.81149300E-03, -2.33378900E-06,
                       4.28881400E-10, -2.95938500E-14, -1.88995200E+04,
                      -1.04786300E+01])),
        transport=gas_transport(geom='nonlinear',
                                diam=4.175,
                                well_depth=378.4,
                                rot_relax=1.0),
        note='121286')

species(name='NH',
        atoms='H:1 N:1',
        thermo=(NASA([300.00, 1000.00],
                     [ 3.33975800E+00,  1.25300900E-03, -3.49164600E-06,
                       4.21881200E-09, -1.55761800E-12,  4.18504700E+04,
                       2.50718100E+00]),
                NASA([1000.00, 5000.00],
                     [ 2.76024900E+00,  1.37534600E-03, -4.45191400E-07,
                       7.69279200E-11, -5.01759200E-15,  4.20782800E+04,
                       5.85719900E+00])),
        transport=gas_transport(geom='linear',
                                diam=2.65,
                                well_depth=80.0,
                                rot_relax=4.0),
        note='31387')

species(name='NH2',
        atoms='H:2 N:1',
        thermo=(NASA([200.00, 1000.00],
                     [ 4.20556010E+00, -2.13552820E-03,  7.26820210E-06,
                      -5.93027990E-09,  1.80672180E-12,  2.15352230E+04,
                      -1.46632310E-01]),
                NASA([1000.00, 6000.00],
                     [ 2.84766110E+00,  3.14284530E-03, -8.98665570E-07,
                       1.30323570E-10, -7.48853560E-15,  2.18239160E+04,
                       6.47181330E+00])),
        transport=gas_transport(geom='nonlinear',
                                diam=2.65,
                                well_depth=80.0,
                                polar=2.26,
                                rot_relax=4.0),
        note='L12/89')

species(name='NH3',
        atoms='H:3 N:1',
        thermo=(NASA([300.00, 1000.00],
                     [ 2.20435200E+00,  1.01147600E-02, -1.46526500E-05,
                       1.44723500E-08, -5.32850900E-12, -6.52548800E+03,
                       8.12713800E+00]),
                NASA([1000.00, 5000.00],
                     [ 2.46190400E+00,  6.05916600E-03, -2.00497700E-06,
                       3.13600300E-10, -1.93831700E-14, -6.49327000E+03,
                       7.47209700E+00])),
        transport=gas_transport(geom='nonlinear',
                                diam=2.92,
                                well_depth=481.0,
                                dipole=1.47,
                                rot_relax=10.0),
        note='121386')

species(name='NNH',
        atoms='H:1 N:2',
        thermo=(NASA([250.00, 1000.00],
                     [ 3.50134400E+00,  2.05358700E-03,  7.17041000E-07,
                       4.92134800E-10, -9.67117000E-13,  2.83334700E+04,
                       6.39183700E+00]),
                NASA([1000.00, 4000.00],
                     [ 4.41534200E+00,  1.61438800E-03, -1.63289400E-07,
                      -8.55984600E-11,  1.61479100E-14,  2.78802900E+04,
                       9.04288800E-01])),
        transport=gas_transport(geom='nonlinear',
                                diam=3.798,
                                well_depth=71.4,
                                rot_relax=1.0),
        note='120186')

species(name='N2H2',
        atoms='H:2 N:2',
        thermo=(NASA([300.00, 1000.00],
                     [ 1.61799900E+00,  1.30631200E-02, -1.71571200E-05,
                       1.60560800E-08, -6.09363900E-12,  2.46752600E+04,
                       1.37946700E+01]),
                NASA([1000.00, 5000.00],
                     [ 3.37118500E+00,  6.03996800E-03, -2.30385400E-06,
                       4.06278900E-10, -2.71314400E-14,  2.41817200E+04,
                       4.98058500E+00])),
        transport=gas_transport(geom='nonlinear',
                                diam=3.798,
                                well_depth=71.4,
                                rot_relax=1.0),
        note='121286')

species(name='N2H3',
        atoms='H:3 N:2',
        thermo=(NASA([300.00, 1000.00],
                     [ 3.17420400E+00,  4.71590700E-03,  1.33486700E-05,
                      -1.91968500E-08,  7.48756400E-12,  1.72727000E+04,
                       7.55722400E+00]),
                NASA([1000.00, 5000.00],
                     [ 4.44184600E+00,  7.21427100E-03, -2.49568400E-06,
                       3.92056500E-10, -2.29895000E-14,  1.66422100E+04,
                      -4.27520500E-01])),
        transport=gas_transport(geom='nonlinear',
                                diam=3.9,
                                well_depth=200.0,
                                rot_relax=1.0))

species(name='N2H4',
        atoms='H:4 N:2',
        thermo=(NASA([300.00, 1000.00],
                     [ 6.44260600E-02,  2.74973000E-02, -2.89945100E-05,
                       1.74524000E-08, -4.42228200E-12,  1.04519200E+04,
                       2.12778900E+01]),
                NASA([1000.00, 5000.00],
                     [ 4.97731700E+00,  9.59551900E-03, -3.54763900E-06,
                       6.12429900E-10, -4.02979500E-14,  9.34121900E+03,
                      -2.96299000E+00])),
        transport=gas_transport(geom='nonlinear',
                                diam=4.23,
                                well_depth=205.0,
                                polar=4.26,
                                rot_relax=1.5),
        note='121286')

species(name='H2',
        atoms='H:2',
        thermo=(NASA([200.00, 1000.00],
                     [ 2.34433112E+00,  7.98052075E-03, -1.94781510E-05,
                       2.01572094E-08, -7.37611761E-12, -9.17935173E+02,
                       6.83010238E-01]),
                NASA([1000.00, 3500.00],
                     [ 3.33727920E+00, -4.94024731E-05,  4.99456778E-07,
                      -1.79566394E-10,  2.00255376E-14, -9.50158922E+02,
                      -3.20502331E+00])),
        transport=gas_transport(geom='linear',
                                diam=2.92,
                                well_depth=38.0,
                                polar=0.79,
                                rot_relax=280.0),
        note='TPIS78')

species(name='H',
        atoms='H:1',
        thermo=(NASA([200.00, 1000.00],
                     [ 2.50000000E+00,  7.05332819E-13, -1.99591964E-15,
                       2.30081632E-18, -9.27732332E-22,  2.54736599E+04,
                      -4.46682853E-01]),
                NASA([1000.00, 3500.00],
                     [ 2.50000001E+00, -2.30842973E-11,  1.61561948E-14,
                      -4.73515235E-18,  4.98197357E-22,  2.54736599E+04,
                      -4.46682914E-01])),
        transport=gas_transport(geom='atom',
                                diam=2.05,
                                well_depth=145.0),
        note='L7/88')

species(name='O',
        atoms='O:1',
        thermo=(NASA([200.00, 1000.00],
                     [ 3.16826710E+00, -3.27931884E-03,  6.64306396E-06,
                      -6.12806624E-09,  2.11265971E-12,  2.91222592E+04,
                       2.05193346E+00]),
                NASA([1000.00, 3500.00],
                     [ 2.56942078E+00, -8.59741137E-05,  4.19484589E-08,
                      -1.00177799E-11,  1.22833691E-15,  2.92175791E+04,
                       4.78433864E+00])),
        transport=gas_transport(geom='atom',
                                diam=2.75,
                                well_depth=80.0),
        note='L1/90')

species(name='O2',
        atoms='O:2',
        thermo=(NASA([200.00, 1000.00],
                     [ 3.78245636E+00, -2.99673416E-03,  9.84730201E-06,
                      -9.68129509E-09,  3.24372837E-12, -1.06394356E+03,
                       3.65767573E+00]),
                NASA([1000.00, 3500.00],
                     [ 3.28253784E+00,  1.48308754E-03, -7.57966669E-07,
                       2.09470555E-10, -2.16717794E-14, -1.08845772E+03,
                       5.45323129E+00])),
        transport=gas_transport(geom='linear',
                                diam=3.458,
                                well_depth=107.4,
                                polar=1.6,
                                rot_relax=3.8),
        note='TPIS89')

species(name='OH',
        atoms='H:1 O:1',
        thermo=(NASA([200.00, 1000.00],
                     [ 3.99201543E+00, -2.40131752E-03,  4.61793841E-06,
                      -3.88113333E-09,  1.36411470E-12,  3.61508056E+03,
                      -1.03925458E-01]),
                NASA([1000.00, 3500.00],
                     [ 3.09288767E+00,  5.48429716E-04,  1.26505228E-07,
                      -8.79461556E-11,  1.17412376E-14,  3.85865700E+03,
                       4.47669610E+00])),
        transport=gas_transport(geom='linear',
                                diam=2.75,
                                well_depth=80.0),
        note='RUS78')

species(name='H2O',
        atoms='H:2 O:1',
        thermo=(NASA([200.00, 1000.00],
                     [ 4.19864056E+00, -2.03643410E-03,  6.52040211E-06,
                      -5.48797062E-09,  1.77197817E-12, -3.02937267E+04,
                      -8.49032208E-01]),
                NASA([1000.00, 3500.00],
                     [ 3.03399249E+00,  2.17691804E-03, -1.64072518E-07,
                      -9.70419870E-11,  1.68200992E-14, -3.00042971E+04,
                       4.96677010E+00])),
        transport=gas_transport(geom='nonlinear',
                                diam=2.605,
                                well_depth=572.4,
                                dipole=1.844,
                                rot_relax=4.0),
        note='L8/89')

species(name='HO2',
        atoms='H:1 O:2',
        thermo=(NASA([200.00, 1000.00],
                     [ 4.30179801E+00, -4.74912051E-03,  2.11582891E-05,
                      -2.42763894E-08,  9.29225124E-12,  2.94808040E+02,
                       3.71666245E+00]),
                NASA([1000.00, 3500.00],
                     [ 4.01721090E+00,  2.23982013E-03, -6.33658150E-07,
                       1.14246370E-10, -1.07908535E-14,  1.11856713E+02,
                       3.78510215E+00])),
        transport=gas_transport(geom='nonlinear',
                                diam=3.458,
                                well_depth=107.4,
                                rot_relax=1.0),
        note='L5/89')

species(name='H2O2',
        atoms='H:2 O:2',
        thermo=(NASA([200.00, 1000.00],
                     [ 4.27611269E+00, -5.42822417E-04,  1.67335701E-05,
                      -2.15770813E-08,  8.62454363E-12, -1.77025821E+04,
                       3.43505074E+00]),
                NASA([1000.00, 3500.00],
                     [ 4.16500285E+00,  4.90831694E-03, -1.90139225E-06,
                       3.71185986E-10, -2.87908305E-14, -1.78617877E+04,
                       2.91615662E+00])),
        transport=gas_transport(geom='nonlinear',
                                diam=3.458,
                                well_depth=107.4,
                                rot_relax=3.8),
        note='L7/88')

species(name='C',
        atoms='C:1',
        thermo=(NASA([200.00, 1000.00],
                     [ 2.55423955E+00, -3.21537724E-04,  7.33792245E-07,
                      -7.32234889E-10,  2.66521446E-13,  8.54438832E+04,
                       4.53130848E+00]),
                NASA([1000.00, 3500.00],
                     [ 2.49266888E+00,  4.79889284E-05, -7.24335020E-08,
                       3.74291029E-11, -4.87277893E-15,  8.54512953E+04,
                       4.80150373E+00])),
        transport=gas_transport(geom='atom',
                                diam=3.298,
                                well_depth=71.4),
        note='L11/88')

species(name='CH',
        atoms='C:1 H:1',
        thermo=(NASA([200.00, 1000.00],
                     [ 3.48981665E+00,  3.23835541E-04, -1.68899065E-06,
                       3.16217327E-09, -1.40609067E-12,  7.07972934E+04,
                       2.08401108E+00]),
                NASA([1000.00, 3500.00],
                     [ 2.87846473E+00,  9.70913681E-04,  1.44445655E-07,
                      -1.30687849E-10,  1.76079383E-14,  7.10124364E+04,
                       5.48497999E+00])),
        transport=gas_transport(geom='linear',
                                diam=2.75,
                                well_depth=80.0),
        note='TPIS79')

species(name='CH2',
        atoms='C:1 H:2',
        thermo=(NASA([200.00, 1000.00],
                     [ 3.76267867E+00,  9.68872143E-04,  2.79489841E-06,
                      -3.85091153E-09,  1.68741719E-12,  4.60040401E+04,
                       1.56253185E+00]),
                NASA([1000.00, 3500.00],
                     [ 2.87410113E+00,  3.65639292E-03, -1.40894597E-06,
                       2.60179549E-10, -1.87727567E-14,  4.62636040E+04,
                       6.17119324E+00])),
        transport=gas_transport(geom='linear',
                                diam=3.8,
                                well_depth=144.0),
        note='LS/93')

species(name='CH2*',
        atoms='C:1 H:2',
        thermo=(NASA([200.00, 1000.00],
                     [ 4.19860411E+00, -2.36661419E-03,  8.23296220E-06,
                      -6.68815981E-09,  1.94314737E-12,  5.04968163E+04,
                      -7.69118967E-01]),
                NASA([1000.00, 3500.00],
                     [ 2.29203842E+00,  4.65588637E-03, -2.01191947E-06,
                       4.17906000E-10, -3.39716365E-14,  5.09259997E+04,
                       8.62650169E+00])),
        transport=gas_transport(geom='linear',
                                diam=3.8,
                                well_depth=144.0),
        note='LS/93')

species(name='CH3',
        atoms='C:1 H:3',
        thermo=(NASA([200.00, 1000.00],
                     [ 3.67359040E+00,  2.01095175E-03,  5.73021856E-06,
                      -6.87117425E-09,  2.54385734E-12,  1.64449988E+04,
                       1.60456433E+00]),
                NASA([1000.00, 3500.00],
                     [ 2.28571772E+00,  7.23990037E-03, -2.98714348E-06,
                       5.95684644E-10, -4.67154394E-14,  1.67755843E+04,
                       8.48007179E+00])),
        transport=gas_transport(geom='linear',
                                diam=3.8,
                                well_depth=144.0),
        note='L11/89')

species(name='CH4',
        atoms='C:1 H:4',
        thermo=(NASA([200.00, 1000.00],
                     [ 5.14987613E+00, -1.36709788E-02,  4.91800599E-05,
                      -4.84743026E-08,  1.66693956E-11, -1.02466476E+04,
                      -4.64130376E+00]),
                NASA([1000.00, 3500.00],
                     [ 7.48514950E-02,  1.33909467E-02, -5.73285809E-06,
                       1.22292535E-09, -1.01815230E-13, -9.46834459E+03,
                       1.84373180E+01])),
        transport=gas_transport(geom='nonlinear',
                                diam=3.746,
                                well_depth=141.4,
                                polar=2.6,
                                rot_relax=13.0),
        note='L8/88')

species(name='CO',
        atoms='C:1 O:1',
        thermo=(NASA([200.00, 1000.00],
                     [ 3.57953347E+00, -6.10353680E-04,  1.01681433E-06,
                       9.07005884E-10, -9.04424499E-13, -1.43440860E+04,
                       3.50840928E+00]),
                NASA([1000.00, 3500.00],
                     [ 2.71518561E+00,  2.06252743E-03, -9.98825771E-07,
                       2.30053008E-10, -2.03647716E-14, -1.41518724E+04,