&HEAD CHID='Qs=20_RI=20', TITLE='Flame Height Test, Q*=20' /

&MESH IJK=65,65,160, XB=-6.0,6.0,-6.0,6.0,-1.50,28.5 /
&TIME T_END=97. /

&MISC HUMIDITY=0, Y_CO2_INFTY=0/
&REAC FUEL='PROPANE',N_SIMPLE_CHEMISTRY_REACTIONS=2,
      SOOT_YIELD=0.015, RADIATIVE_FRACTION=0 /


&RADI TRI_MODEL=F/

&SURF ID='burner', HRRPUA=30254.5, COLOR='RED' /
&OBST XB=-0.5,0.5,-0.5,0.5,-0.4,0.0, SURF_IDS='burner','INERT','INERT', THICKEN=.TRUE. /

&VENT MB='XMIN', SURF_ID='OPEN' /
&VENT MB='XMAX', SURF_ID='OPEN' /
&VENT MB='YMIN', SURF_ID='OPEN' /
&VENT MB='YMAX', SURF_ID='OPEN' /
&VENT MB='ZMIN', SURF_ID='OPEN' /
&VENT MB='ZMAX', SURF_ID='OPEN' /
&DUMP DT_HRR=5., NFRAMES=100, SIG_FIGS=4, SIG_FIGS_EXP=2 /

&DEVC XB=0.0,0.0,0.0,0.0,0.09375,28.41, QUANTITY='HRRPUL', POINTS=152, Z_ID='Height', ID='HRRPUL' /

&TAIL /

