&HEAD CHID='forced_conv_flat_plate_u1_2p5cm', TITLE='Turbulent flat plate boundary layer'/

&MULT ID='m1',DX=1,DY=1,DZ=1,I_UPPER=15,J_UPPER=1,K_UPPER=3/ 16*2*4=128 meshes
&MESH IJK=40,40,40, XB=0,1,-1,0,0,1, MULT_ID='m1'/

&TIME T_END=320/

&MISC GVEC(3)=0, STRATIFICATION=F, SIMULATION_MODE='LES' /

&PRES SOLVER='FFT', MAX_PRESSURE_ITERATIONS=10/

&RADI RADIATION=F/

&SPEC ID='NITROGEN', BACKGROUND=T
      VISCOSITY=1.E-5
      SPECIFIC_HEAT=1.
      CONDUCTIVITY=0.01/

&SURF ID='HOT', HEAT_TRANSFER_MODEL='RAYLEIGH', TMP_FRONT=30, COLOR='RED', DEFAULT=T/

! &SURF ID='INLET', VEL=-1, COLOR='BLUE'/
&WIND SPEED=1/

&VENT DB='XMIN', SURF_ID='OPEN' /
&VENT DB='XMAX', SURF_ID='OPEN' /
&VENT DB='YMIN', SURF_ID='PERIODIC' /
&VENT DB='YMAX', SURF_ID='PERIODIC' /
&VENT DB='ZMAX', SURF_ID='OPEN' /

&DEVC ID='HTC', XB=0,16,0,0,0,0, QUANTITY='HEAT TRANSFER COEFFICIENT', IOR=3, POINTS=32/
&DEVC ID='QCONV1', XB=0,16,-0.875,-0.875,0,0, QUANTITY='CONVECTIVE HEAT FLUX', IOR=3, POINTS=32, HIDE_COORDINATES=T/
&DEVC ID='QCONV2', XB=0,16,-0.625,-0.625,0,0, QUANTITY='CONVECTIVE HEAT FLUX', IOR=3, POINTS=32, HIDE_COORDINATES=T/
&DEVC ID='QCONV3', XB=0,16,-0.375,-0.375,0,0, QUANTITY='CONVECTIVE HEAT FLUX', IOR=3, POINTS=32, HIDE_COORDINATES=T/
&DEVC ID='QCONV4', XB=0,16,-0.125,-0.125,0,0, QUANTITY='CONVECTIVE HEAT FLUX', IOR=3, POINTS=32, HIDE_COORDINATES=T/
&DEVC ID='QCONV5', XB=0,16, 0.125, 0.125,0,0, QUANTITY='CONVECTIVE HEAT FLUX', IOR=3, POINTS=32, HIDE_COORDINATES=T/
&DEVC ID='QCONV6', XB=0,16, 0.375, 0.375,0,0, QUANTITY='CONVECTIVE HEAT FLUX', IOR=3, POINTS=32, HIDE_COORDINATES=T/
&DEVC ID='QCONV7', XB=0,16, 0.625, 0.625,0,0, QUANTITY='CONVECTIVE HEAT FLUX', IOR=3, POINTS=32, HIDE_COORDINATES=T/
&DEVC ID='QCONV8', XB=0,16, 0.875, 0.875,0,0, QUANTITY='CONVECTIVE HEAT FLUX', IOR=3, POINTS=32, HIDE_COORDINATES=T/

&SLCF PBY=0.0, QUANTITY='VISCOSITY', CELL_CENTERED=T /
&SLCF PBY=0.0, QUANTITY='TEMPERATURE', CELL_CENTERED=T /
&SLCF PBY=0.0, QUANTITY='VELOCITY', VECTOR=T /

&BNDF QUANTITY='HEAT TRANSFER COEFFICIENT', CELL_CENTERED=T /
&BNDF QUANTITY='VISCOUS WALL UNITS' /
&BNDF QUANTITY='THERMAL WALL UNITS' /

&TAIL /