&HEAD CHID='Cup_methane_CO2_16pct',TITLE='Methane Cup Burner, CO2 above MEC'/

! &MESH XB=0,0.04,0.0,0.001,0.05,0.200,IJK=40,1,150,CYLINDRICAL=.TRUE./

&MULT ID='m1',DX=0.01,DZ=0.01,I_UPPER=3,K_UPPER=14/ 60 mesh
&MESH XB=0,0.01,0.0,0.001,0.05,0.06,IJK=20,1,20,CYLINDRICAL=T,MULT_ID='m1'/

&MISC SIMULATION_MODE='DNS',HUMIDITY=0.0,Y_CO2_INFTY=0.0,CHECK_HT=T/

&PRES SOLVER='UGLMAT', MAX_PRESSURE_ITERATIONS=1/

&TIME T_END=1/

&SPEC ID='CARBON DIOXIDE'/

&COMB ZZ_MIN_GLOBAL=1E-15/
&REAC FUEL='METHANE', AUTO_IGNITION_TEMPERATURE=540, CRITICAL_FLAME_TEMPERATURE=1694/

&INIT PART_ID='ignitor', XYZ=0.0105,0.0005,0.1035, N_PARTICLES=1 /
&PART ID='ignitor', SAMPLING_FACTOR=1, SURF_ID='hot', STATIC=.TRUE., QUANTITIES='PARTICLE TEMPERATURE' /
&SURF ID='hot', TMP_FRONT=1000., EMISSIVITY=1., RADIUS=0.0005, GEOMETRY='SPHERICAL', RAMP_T='ignitor ramp' /

&RAMP ID='ignitor ramp', T=0.00,F=0/
&RAMP ID='ignitor ramp', T=0.05,F=1/
&RAMP ID='ignitor ramp', T=0.20,F=1/
&RAMP ID='ignitor ramp', T=0.21,F=0/
&RAMP ID='ignitor ramp', T=1.00,F=0/

&MATL ID='PYREX',SPECIFIC_HEAT=0.753, CONDUCTIVITY=1.,DENSITY=2230./
&SURF ID='PYREX',DEFAULT=T,MATL_ID='PYREX',THICKNESS=0.002,COLOR='GRAY 40'/

! &SURF ID='INFLOW',VEL=-0.12,SPEC_ID='OXYGEN',MASS_FRACTION=0.23/
&SURF ID='INFLOW',
      MASS_FLUX(1)=0.1440, SPEC_ID(1)='AIR',
      MASS_FLUX(2)=0.02743, SPEC_ID(2)='CARBON DIOXIDE'
      TAU_MF(1:2)=0,0 / 16% agent by mass

&SURF ID='BURNER',VEL=-0.01,SPEC_ID(1)='METHANE',MASS_FRACTION(1)=1.,TAU_MF(1)=0./

&OBST XB=0.000,0.010,0.000,0.001,0.085,0.100,SURF_IDS='BURNER','PYREX','PYREX'/
&OBST XB=0.010,0.011,0.000,0.001,0.085,0.103,SURF_ID='PYREX'/
&VENT PBZ=0.05,SURF_ID='INFLOW'/
&VENT PBZ=0.2,SURF_ID='OPEN'/

&SLCF DB='YMID', VECTOR=T, QUANTITY='VELOCITY'/
&SLCF DB='YMID', CELL_CENTERED=T, QUANTITY='VOLUME FRACTION',SPEC_ID='NITROGEN'/
&SLCF DB='YMID', CELL_CENTERED=T, QUANTITY='VOLUME FRACTION',SPEC_ID='CARBON DIOXIDE'/
&SLCF DB='YMID', CELL_CENTERED=T, QUANTITY='VOLUME FRACTION',SPEC_ID='OXYGEN'/
&SLCF DB='YMID', CELL_CENTERED=T, QUANTITY='VOLUME FRACTION',SPEC_ID='METHANE'/
&SLCF DB='YMID', CELL_CENTERED=T, QUANTITY='CHEMISTRY SUBITERATIONS'/
&SLCF DB='YMID', CELL_CENTERED=T, QUANTITY='TEMPERATURE'/
&SLCF DB='YMID', CELL_CENTERED=T, QUANTITY='ENTHALPY'/


&TAIL /
