&HEAD CHID='cup_dns_ch4', TITLE='DNS 0.2 mm resolution' /

&MESH XB=0.0,0.005,0.000,0.001,0.0,0.005,IJK=25,1,25,MULT_ID='M1'/
&MULT ID='M1',I_LOWER=0,I_UPPER=3,K_UPPER=11,DX=0.005,DZ=0.005/ 48 mesh

&TIME T_END=1,DT=0.0001/

&MISC SIMULATION_MODE='DNS'/

&RADI PATH_LENGTH=0.005/

&PRES SOLVER='UGLMAT', MAX_PRESSURE_ITERATIONS=1/

&CLIP MINIMUM_DENSITY=0.01/

&INIT XB=0.0082,0.0100,0.0000,0.0010,0.0025,0.0050,HRRPUV=1E5,RAMP_Q='R'/

&RAMP ID='R',T=0.00,F=0/
&RAMP ID='R',T=0.05,F=1/
&RAMP ID='R',T=0.25,F=1/
&RAMP ID='R',T=0.30,F=0/

&COMB FINITE_RATE_MIN_TEMP=300,ZZ_MIN_GLOBAL=1E-15,INITIAL_UNMIXED_FRACTION=0,
      ODE_SOLVER='RK2 RICHARDSON',RICHARDSON_ERROR_TOLERANCE=1.E-6,MAX_CHEMISTRY_SUBSTEPS=200/

&VENT DB='ZMAX',SURF_ID='OPEN'/
&VENT DB='XMIN',SURF_ID='MIRROR'/
&VENT DB='XMAX',SURF_ID='OPEN'/
&VENT XB=0.000,0.008,0.000,0.001,0.000,0.000,SURF_ID='BURNER'/
&VENT XB=0.010,0.025,0.000,0.001,0.000,0.000,SURF_ID='INFLOW'/

&MATL ID='PYREX',
      SPECIFIC_HEAT=0.753,
      CONDUCTIVITY=1.,
      DENSITY=2230.
      ABSORPTION_COEFFICIENT=50/

&OBST XB=0.0082,0.0084,0.0000,0.0010,0.0000,0.0034,COLOR='CYAN',MATL_ID='PYREX',THICKNESS=0.002/
&OBST XB=0.0084,0.0086,0.0000,0.0010,0.0000,0.0036,COLOR='CYAN',MATL_ID='PYREX',THICKNESS=0.002/
&OBST XB=0.0086,0.0088,0.0000,0.0010,0.0000,0.0038,COLOR='CYAN',MATL_ID='PYREX',THICKNESS=0.002/
&OBST XB=0.0088,0.0090,0.0000,0.0010,0.0000,0.0040,COLOR='CYAN',MATL_ID='PYREX',THICKNESS=0.002/
&OBST XB=0.0090,0.0092,0.0000,0.0010,0.0000,0.0042,COLOR='CYAN',MATL_ID='PYREX',THICKNESS=0.002/
&OBST XB=0.0092,0.0094,0.0000,0.0010,0.0000,0.0044,COLOR='CYAN',MATL_ID='PYREX',THICKNESS=0.002/
&OBST XB=0.0094,0.0096,0.0000,0.0010,0.0000,0.0046,COLOR='CYAN',MATL_ID='PYREX',THICKNESS=0.002/
&OBST XB=0.0096,0.0098,0.0000,0.0010,0.0000,0.0048,COLOR='CYAN',MATL_ID='PYREX',THICKNESS=0.002/
&OBST XB=0.0098,0.0100,0.0000,0.0010,0.0000,0.0050,COLOR='CYAN',MATL_ID='PYREX',THICKNESS=0.002/

&SURF ID='WALL',COLOR='PURPLE',DEFAULT=T,FREE_SLIP=T/

&SURF ID='INFLOW',VEL=-0.12,SPEC_ID='OXYGEN',MASS_FRACTION=0.23/
! &SURF ID='INFLOW',
!       MASS_FLUX(1)=0.0331, SPEC_ID(1)='OXYGEN',
!       MASS_FLUX(2)=0.1109, SPEC_ID(2)='NITROGEN',
!       MASS_FLUX(3)=0.0030, SPEC_ID(3)='SODIUM HYDROXIDE',
!       MASS_FLUX(4)=0.0033, SPEC_ID(4)='CARBON DIOXIDE'
!       TAU_MF(1:4)=0,0,0,0 /

&SURF ID='BURNER',VEL=-0.01,SPEC_ID(1)='METHANE',MASS_FRACTION(1)=1.,TAU_MF(1)=0./

&DEVC XB=0.00475,0.01175,0.00025,0.00025,0.01525,0.01525,POINTS=15,TIME_HISTORY=T,QUANTITY='VOLUME FRACTION',SPEC_ID='NITROGEN',ID='N2'/
&DEVC XB=0.00475,0.01175,0.00025,0.00025,0.01525,0.01525,POINTS=15,TIME_HISTORY=T,QUANTITY='VOLUME FRACTION',SPEC_ID='OXYGEN',ID='O2'/
&DEVC XB=0.00475,0.01175,0.00025,0.00025,0.01525,0.01525,POINTS=15,TIME_HISTORY=T,QUANTITY='VOLUME FRACTION',SPEC_ID='METHANE',ID='CH4'/
&DEVC XB=0.00475,0.01175,0.00025,0.00025,0.01525,0.01525,POINTS=15,TIME_HISTORY=T,QUANTITY='VOLUME FRACTION',SPEC_ID='WATER VAPOR',ID='H2O'/
&DEVC XB=0.00475,0.01175,0.00025,0.00025,0.01525,0.01525,POINTS=15,TIME_HISTORY=T,QUANTITY='VOLUME FRACTION',SPEC_ID='CARBON DIOXIDE',ID='CO2'/
&DEVC XB=0.00475,0.01175,0.00025,0.00025,0.01525,0.01525,POINTS=15,TIME_HISTORY=T,QUANTITY='VOLUME FRACTION',SPEC_ID='CARBON MONOXIDE',ID='CO'/
&DEVC XB=0.00475,0.01175,0.00025,0.00025,0.01525,0.01525,POINTS=15,TIME_HISTORY=T,QUANTITY='VOLUME FRACTION',SPEC_ID='HYDROGEN',ID='H2'/
&DEVC XB=0.00475,0.01175,0.00025,0.00025,0.01525,0.01525,POINTS=15,TIME_HISTORY=T,QUANTITY='VOLUME FRACTION',SPEC_ID='HYDROGEN ATOM',ID='H'/
&DEVC XB=0.00475,0.01175,0.00025,0.00025,0.01525,0.01525,POINTS=15,TIME_HISTORY=T,QUANTITY='VOLUME FRACTION',SPEC_ID='OXYGEN ATOM',ID='O'/
&DEVC XB=0.00475,0.01175,0.00025,0.00025,0.01525,0.01525,POINTS=15,TIME_HISTORY=T,QUANTITY='VOLUME FRACTION',SPEC_ID='HYDROXYL RADICAL',ID='OH'/
&DEVC XB=0.00475,0.01175,0.00025,0.00025,0.01525,0.01525,POINTS=15,TIME_HISTORY=T,QUANTITY='VOLUME FRACTION',SPEC_ID='HYDROPEROXY RADICAL',ID='HO2'/
&DEVC XB=0.00475,0.01175,0.00025,0.00025,0.01525,0.01525,POINTS=15,TIME_HISTORY=T,QUANTITY='VOLUME FRACTION',SPEC_ID='HYDROGEN PEROXIDE',ID='H2O2'/
&DEVC XB=0.00475,0.01175,0.00025,0.00025,0.01525,0.01525,POINTS=15,TIME_HISTORY=T,QUANTITY='VOLUME FRACTION',SPEC_ID='FORMYL RADICAL',ID='HCO'/
&DEVC XB=0.00475,0.01175,0.00025,0.00025,0.01525,0.01525,POINTS=15,TIME_HISTORY=T,QUANTITY='VOLUME FRACTION',SPEC_ID='FORMALDEHYDE',ID='CH2O'/
&DEVC XB=0.00475,0.01175,0.00025,0.00025,0.01525,0.01525,POINTS=15,TIME_HISTORY=T,QUANTITY='VOLUME FRACTION',SPEC_ID='METHOXY RADICAL',ID='CH3O'/
&DEVC XB=0.00475,0.01175,0.00025,0.00025,0.01525,0.01525,POINTS=15,TIME_HISTORY=T,QUANTITY='VOLUME FRACTION',SPEC_ID='METHYL RADICAL',ID='CH3'/
! &DEVC XB=0.00475,0.01175,0.00025,0.00025,0.01525,0.01525,POINTS=15,TIME_HISTORY=T,QUANTITY='VOLUME FRACTION',SPEC_ID='SODIUM',ID='Na'/
! &DEVC XB=0.00475,0.01175,0.00025,0.00025,0.01525,0.01525,POINTS=15,TIME_HISTORY=T,QUANTITY='VOLUME FRACTION',SPEC_ID='SODIUM HYDROXIDE',ID='NaOH'/
! &DEVC XB=0.00475,0.01175,0.00025,0.00025,0.01525,0.01525,POINTS=15,TIME_HISTORY=T,QUANTITY='VOLUME FRACTION',SPEC_ID='SODIUM OXIDE',ID='NaO'/
&DEVC XB=0.00475,0.01175,0.00025,0.00025,0.01525,0.01525,POINTS=15,TIME_HISTORY=T,QUANTITY='CHEMISTRY SUBITERATIONS',ID='CHEM'/
&DEVC XB=0.00475,0.01175,0.00025,0.00025,0.01525,0.01525,POINTS=15,TIME_HISTORY=T,QUANTITY='W-VELOCITY',ID='W'/
&DEVC XB=0.00475,0.01175,0.00025,0.00025,0.01525,0.01525,POINTS=15,TIME_HISTORY=T,QUANTITY='TEMPERATURE',ID='T'/
&DEVC XB=0.00475,0.01175,0.00025,0.00025,0.01525,0.01525,POINTS=15,TIME_HISTORY=T,QUANTITY='HRRPUV',ID='Q'/
&DEVC XB=0.00475,0.01175,0.00025,0.00025,0.01525,0.01525,POINTS=15,TIME_HISTORY=T,QUANTITY='PRESSURE',ID='P'/

&SLCF QUANTITY='TEMPERATURE',CELL_CENTERED=T,PBY=0.0005/
&SLCF QUANTITY='HRRPUV',CELL_CENTERED=T,PBY=0.0005/
&SLCF QUANTITY='U-VELOCITY',CELL_CENTERED=T,PBY=0.0005/
&SLCF QUANTITY='W-VELOCITY',CELL_CENTERED=T,PBY=0.0005/
&SLCF QUANTITY='CHEMISTRY SUBITERATIONS',CELL_CENTERED=T,PBY=0.0005/
&SLCF QUANTITY='VOLUME FRACTION',SPEC_ID='METHANE',CELL_CENTERED=T,PBY=0.0005/
&SLCF QUANTITY='VOLUME FRACTION',SPEC_ID='OXYGEN',CELL_CENTERED=T,PBY=0.0005/
&SLCF QUANTITY='VOLUME FRACTION',SPEC_ID='WATER VAPOR',CELL_CENTERED=T,PBY=0.0005/
&SLCF QUANTITY='VOLUME FRACTION',SPEC_ID='CARBON DIOXIDE',CELL_CENTERED=T,PBY=0.0005/
&SLCF QUANTITY='VOLUME FRACTION',SPEC_ID='CARBON MONOXIDE',CELL_CENTERED=T,PBY=0.0005/
&SLCF QUANTITY='VOLUME FRACTION',SPEC_ID='HYDROGEN',CELL_CENTERED=T,PBY=0.0005/
&SLCF QUANTITY='VOLUME FRACTION',SPEC_ID='HYDROGEN ATOM',CELL_CENTERED=T,PBY=0.0005/
&SLCF QUANTITY='VOLUME FRACTION',SPEC_ID='OXYGEN ATOM',CELL_CENTERED=T,PBY=0.0005/
&SLCF QUANTITY='VOLUME FRACTION',SPEC_ID='HYDROXYL RADICAL',CELL_CENTERED=T,PBY=0.0005/
&SLCF QUANTITY='VOLUME FRACTION',SPEC_ID='HYDROPEROXY RADICAL',CELL_CENTERED=T,PBY=0.0005/
&SLCF QUANTITY='VOLUME FRACTION',SPEC_ID='METHYL RADICAL',CELL_CENTERED=T,PBY=0.0005/
! &SLCF QUANTITY='VOLUME FRACTION',SPEC_ID='SODIUM',CELL_CENTERED=T,PBY=0.0005/
! &SLCF QUANTITY='VOLUME FRACTION',SPEC_ID='SODIUM HYDROXIDE',CELL_CENTERED=T,PBY=0.0005/
! &SLCF QUANTITY='VOLUME FRACTION',SPEC_ID='SODIUM OXIDE',CELL_CENTERED=T,PBY=0.0005/

&CATF OTHER_FILES='../Mech/CH4_skeletal_smooke.fds'/

&TAIL /
