&HEAD CHID='test_aft', TITLE='Verification of adiabatic flame temperatures.' /

&MESH IJK=5,5,5, XB=0,1,0,1,0,1/

&TIME T_END=0.001/

&RADI TRI_MODEL=T/

&MISC TMPA=1500, HUMIDITY=0/

&COMB INITIAL_UNMIXED_FRACTION=0.0, SUPPRESSION=F /

! &SPEC ID='NITROGEN', LUMPED_COMPONENT_ONLY=T/
! &SPEC ID='OXYGEN', LUMPED_COMPONENT_ONLY=T/
! &SPEC ID='WATER VAPOR', LUMPED_COMPONENT_ONLY=T/
! &SPEC ID='CARBON DIOXIDE', LUMPED_COMPONENT_ONLY=T/
! &SPEC ID='METHANE'/

! &SPEC ID='MY AIR', BACKGROUND=T
!       SPEC_ID(1)='NITROGEN',         MASS_FRACTION(1)=0.762470,
!       SPEC_ID(2)='OXYGEN',           MASS_FRACTION(2)=0.230997,
!       SPEC_ID(3)='CARBON DIOXIDE',   MASS_FRACTION(3)=0.000591,
!       SPEC_ID(4)='WATER VAPOR',      MASS_FRACTION(4)=0.005941/

! &SPEC ID='MY PROD',
!       SPEC_ID(1)='NITROGEN',         MASS_FRACTION(1)=0.720736,
!       SPEC_ID(2)='CARBON DIOXIDE',   MASS_FRACTION(2)=0.150715,
!       SPEC_ID(3)='WATER VAPOR',      MASS_FRACTION(3)=0.128549/

! &REAC FUEL='METHANE',
!       NU = -9.635823,-1.000000,10.635823
!       SPEC_ID_NU= 'MY AIR','METHANE','MY PROD'/

&REAC FUEL='METHANE'/

&INIT XB=0,1,0,1,0,1, SPEC_ID(1)='METHANE', MASS_FRACTION(1) = 0.0547/

&SLCF DB='YMID', QUANTITY = 'FLAME TEMPERATURE', CELL_CENTERED=.TRUE./

&DEVC ID='AFT', XB=0,1,0,1,0,1, QUANTITY='FLAME TEMPERATURE', SPATIAL_STATISTIC='MAX'/

&TAIL/
